
  EPA STORM WATER MANAGEMENT MODEL - VERSION 5.2 (Build 5.2.4)
  ------------------------------------------------------------

  WARNING 04: minimum elevation drop used for Conduit 1
  WARNING 05: minimum slope used for Conduit 1
  WARNING 05: minimum slope used for Conduit 68
  WARNING 05: minimum slope used for Conduit 75
  WARNING 05: minimum slope used for Conduit 77
  WARNING 05: minimum slope used for Conduit 81
  WARNING 05: minimum slope used for Conduit 84
  WARNING 05: minimum slope used for Conduit 87
  WARNING 05: minimum slope used for Conduit 88
  WARNING 05: minimum slope used for Conduit 93
  WARNING 05: minimum slope used for Conduit 94
  WARNING 05: minimum slope used for Conduit 95
  WARNING 05: minimum slope used for Conduit 97
  WARNING 05: minimum slope used for Conduit 98
  
  ****************
  Analysis Options
  ****************
  Flow Units ............... LPS
  Process Models:
    Rainfall/Runoff ........ YES
    RDII ................... NO
    Snowmelt ............... NO
    Groundwater ............ NO
    Flow Routing ........... YES
    Ponding Allowed ........ NO
    Water Quality .......... NO
  Infiltration Method ...... GREEN_AMPT
  Flow Routing Method ...... DYNWAVE
  Surcharge Method ......... EXTRAN
  Starting Date ............ 07/20/2018 00:00:00
  Ending Date .............. 07/21/2018 23:55:00
  Antecedent Dry Days ...... 20.0
  Report Time Step ......... 00:05:00
  Wet Time Step ............ 00:00:30
  Dry Time Step ............ 01:00:00
  Routing Time Step ........ 30.00 sec
  Variable Time Step ....... YES
  Maximum Trials ........... 10
  Number of Threads ........ 4
  Head Tolerance ........... 0.001000 m
  
  
  *********************
  Rainfall File Summary
  *********************
  Station    First        Last         Recording   Periods    Periods    Periods
  ID         Date         Date         Frequency  w/Precip    Missing    Malfunc.
  -------------------------------------------------------------------------------
  LO         07/20/2018   07/20/2018       5 min        25          0          0

  
  
  **************************        Volume         Depth
  Runoff Quantity Continuity     hectare-m            mm
  **************************     ---------       -------
  Initial Snow Cover .......         0.000         0.000
  Total Precipitation ......         0.315        44.680
  Evaporation Loss .........         0.000         0.000
  Infiltration Loss ........         0.060         8.484
  Surface Runoff ...........         0.253        35.968
  Snow Removed .............         0.000         0.000
  Final Snow Cover .........         0.000         0.000
  Final Storage ............         0.002         0.291
  Continuity Error (%) .....        -0.141
  
  
  **************************        Volume        Volume
  Flow Routing Continuity        hectare-m      10^6 ltr
  **************************     ---------     ---------
  Dry Weather Inflow .......         0.000         0.000
  Wet Weather Inflow .......         0.252         2.525
  Groundwater Inflow .......         0.000         0.000
  RDII Inflow ..............         0.000         0.000
  External Inflow ..........         0.000         0.000
  External Outflow .........         0.187         1.871
  Flooding Loss ............         0.068         0.682
  Evaporation Loss .........         0.000         0.000
  Exfiltration Loss ........         0.000         0.000
  Initial Stored Volume ....         0.000         0.000
  Final Stored Volume ......         0.000         0.002
  Continuity Error (%) .....        -1.182
  
  
  *************************
  Highest Continuity Errors
  *************************
  Node 36Q88RW (1.79%)
  Node 36Q114RW (-1.70%)
  Node 36Q123RW (-1.37%)
  
  
  ***************************
  Time-Step Critical Elements
  ***************************
  Link 88 (2.39%)
  Link 1 (1.91%)
  Link 75 (1.42%)
  
  
  ********************************
  Highest Flow Instability Indexes
  ********************************
  All links are stable.
  
  
  *********************************
  Most Frequent Nonconverging Nodes
  *********************************
  Node CSO_6 (3.42%)
  Node 36Q88RW (1.98%)
  Node 69RW (1.82%)
  Node 36Q86RW (1.78%)
  Node 87RW (1.58%)
  
  
  *************************
  Routing Time Step Summary
  *************************
  Minimum Time Step           :     3.75 sec
  Average Time Step           :    29.03 sec
  Maximum Time Step           :    30.00 sec
  % of Time in Steady State   :    25.24
  Average Iterations per Step :     2.39
  % of Steps Not Converging   :     3.42
  Time Step Frequencies       :
     30.000 -  9.587 sec      :    99.48 %
      9.587 -  3.064 sec      :     0.52 %
      3.064 -  0.979 sec      :     0.00 %
      0.979 -  0.313 sec      :     0.00 %
      0.313 -  0.100 sec      :     0.00 %
  
  
  ***************************
  Subcatchment Runoff Summary
  ***************************
  
  ------------------------------------------------------------------------------------------------------------------------------
                            Total      Total      Total      Total     Imperv       Perv      Total       Total     Peak  Runoff
                           Precip      Runon       Evap      Infil     Runoff     Runoff     Runoff      Runoff   Runoff   Coeff
  Subcatchment                 mm         mm         mm         mm         mm         mm         mm    10^6 ltr      LPS
  ------------------------------------------------------------------------------------------------------------------------------
  Stone_Paver_s23           44.68       0.00       0.00       0.00      43.82       0.00      43.82        0.00     5.37   0.981
  Stone_Paver_s24           44.68       0.00       0.00       0.00      43.80       0.00      43.80        0.00     5.37   0.980
  Vegetation_s97            44.68      44.45       0.00      25.91      17.65      45.43      63.08        0.01    10.18   0.708
  Vegetation_s98            44.68       0.00       0.00      22.51       8.77      13.25      22.02        0.00     4.72   0.493
  Vegetation_s99            44.68       0.00       0.00      22.31       8.76      13.47      22.23        0.00     4.99   0.497
  Stone_Paver_s100          44.68      44.45       0.00       0.00      88.27       0.00      88.27        0.01    10.73   0.990
  Roof_s101                 44.68       0.00       0.00       0.00      44.45       0.00      44.45        0.00     5.37   0.995
  Roof_s170                 44.68       0.00       0.00       0.00      44.45       0.00      44.45        0.00     5.37   0.995
  Vegetation_s171           44.68      63.08       0.00      25.38      21.37      60.88      82.25        0.01    14.86   0.763
  Stone_Paver_s172          44.68     170.25       0.00       0.00     214.08       0.00     214.08        0.02    38.10   0.996
  Stone_Paver_s173          44.68      88.27       0.00       0.00     132.10       0.00     132.10        0.01    16.10   0.994
  Stone_Paver_s174          44.68       0.00       0.00       0.00      43.80       0.00      43.80        0.00     5.37   0.980
  Stone_Paver_s237          44.68       0.00       0.00       0.00      43.81       0.00      43.81        0.00     5.37   0.981
  Vegetation_s244           44.68       0.00       0.00      22.81       8.77      12.95      21.72        0.00     4.19   0.486
  Vegetation_s245           44.68       0.00       0.00      22.50       8.77      13.27      22.03        0.00     4.73   0.493
  Stone_Paver_s246          44.68      84.54       0.00       0.00     128.35       0.00     128.35        0.01    18.89   0.993
  Vegetation_s308           44.68       0.00       0.00      22.52       8.77      13.25      22.01        0.00     4.71   0.493
  Vegetation_s309           44.68       0.00       0.00      22.42       8.76      13.35      22.12        0.00     4.86   0.495
  Vegetation_s310           44.68      43.81       0.00      25.56      17.52      45.27      62.80        0.01    10.37   0.710
  Vegetation_s311           44.68       0.00       0.00      22.46       8.77      13.31      22.08        0.00     4.81   0.494
  Vegetation_s312           44.68       0.00       0.00      22.40       8.76      13.37      22.14        0.00     4.89   0.495
  Vegetation_s313           44.68       0.00       0.00      22.57       8.77      13.19      21.96        0.00     4.62   0.492
  Vegetation_s314           44.68       0.00       0.00      22.45       8.77      13.32      22.09        0.00     4.82   0.494
  Vegetation_s315           44.68       0.00       0.00      22.54       8.77      13.22      21.99        0.00     4.67   0.492
  Vegetation_s318           44.68       0.00       0.00      23.13       8.77      12.63      21.39        0.00     3.66   0.479
  Vegetation_s319           44.68      44.45       0.00      25.85      17.65      45.49      63.15        0.01    10.25   0.708
  Vegetation_s380           44.68       0.00       0.00      22.53       8.77      13.24      22.01        0.00     4.70   0.493
  Vegetation_s381           44.68       0.00       0.00      22.39       8.76      13.38      22.14        0.00     4.90   0.496
  Vegetation_s382           44.68      22.01       0.00      23.81      13.16      29.58      42.74        0.00     9.41   0.641
  Street_s383               44.68     106.99       0.00       0.00     151.45       0.00     151.45        0.02    25.19   0.999
  Vegetation_s384           44.68       0.00       0.00      22.34       8.76      13.44      22.20        0.00     4.96   0.497
  Vegetation_s385           44.68      22.14       0.00      23.86      13.19      29.63      42.82        0.00     9.59   0.641
  Vegetation_s386           44.68       0.00       0.00      22.37       8.76      13.41      22.17        0.00     4.93   0.496
  Street_s387               44.68      44.05       0.00       0.00      88.51       0.00      88.51        0.01    14.55   0.998
  Street_s388               44.68      21.99       0.00       0.00      66.44       0.00      66.44        0.01     9.87   0.997
  Vegetation_s390           44.68       0.00       0.00      22.50       8.77      13.27      22.03        0.00     4.73   0.493
  Roof_s392                 44.68       0.00       0.00       0.00      44.45       0.00      44.45        0.00     5.37   0.995
  Vegetation_s452           44.68       0.00       0.00      22.49       8.77      13.28      22.05        0.00     4.76   0.493
  Vegetation_s453           44.68       0.00       0.00      22.44       8.76      13.34      22.10        0.00     4.84   0.495
  Vegetation_s454           44.68      22.01       0.00      23.80      13.16      29.60      42.75        0.00     9.42   0.641
  Street_s455               44.68     192.12       0.00       0.00     236.60       0.00     236.60        0.02    46.42   0.999
  Street_s456               44.68     151.45       0.00       0.00     195.92       0.00     195.92        0.02    30.24   0.999
  Street_s457               44.68      85.53       0.00       0.00     129.99       0.00     129.99        0.01    20.62   0.998
  Street_s458               44.68     106.10       0.00       0.00     150.55       0.00     150.55        0.02    25.05   0.998
  Street_s459               44.68      22.17       0.00       0.00      66.62       0.00      66.62        0.01    10.23   0.997
  Street_s460               44.68     152.27       0.00       0.00     196.76       0.00     196.76        0.02    26.45   0.999
  Street_s461               44.68       0.00       0.00       0.00      44.46       0.00      44.46        0.00     5.37   0.995
  Street_s462               44.68       0.00       0.00       0.00      44.46       0.00      44.46        0.00     5.37   0.995
  Street_s463               44.68      22.03       0.00       0.00      66.48       0.00      66.48        0.01     9.94   0.996
  Street_s469               44.68     126.12       0.00       0.00     170.58       0.00     170.58        0.02    28.72   0.999
  Vegetation_s470           44.68       0.00       0.00      22.41       8.76      13.36      22.13        0.00     4.88   0.495
  Vegetation_s471           44.68       0.00       0.00      22.62       8.77      13.15      21.91        0.00     4.53   0.490
  Vegetation_s472           44.68      88.91       0.00      26.55      26.54      80.38     106.92        0.01    15.61   0.800
  Roof_s473                 44.68       0.00       0.00       0.00      44.45       0.00      44.45        0.00     5.37   0.995
  Vegetation_s526           44.68      22.05       0.00      23.82      13.17      29.60      42.77        0.00     9.47   0.641
  Vegetation_s527           44.68      64.87       0.00      24.95      21.73      62.75      84.48        0.01    18.49   0.771
  Street_s529               44.68     107.77       0.00       0.00     152.25       0.00     152.25        0.02    21.06   0.999
  Vegetation_s530           44.68      44.45       0.00      25.68      17.65      45.67      63.32        0.01    10.37   0.710
  Vegetation_s531           44.68      44.45       0.00      25.67      17.65      45.68      63.33        0.01    10.37   0.711
  Vegetation_s532           44.68      44.45       0.00      25.71      17.65      45.63      63.29        0.01    10.35   0.710
  Roof_s533                 44.68       0.00       0.00       0.00      44.45       0.00      44.45        0.00     5.37   0.995
  Vegetation_s534           44.68      44.45       0.00      25.65      17.65      45.70      63.35        0.01    10.38   0.711
  Street_s536               44.68       0.00       0.00       0.00      44.45       0.00      44.45        0.00     5.37   0.995
  Street_s537               44.68       0.00       0.00       0.00      44.45       0.00      44.45        0.00     5.37   0.995
  Street_s541               44.68     214.78       0.00       0.00     259.25       0.00     259.25        0.03    42.71   0.999
  Vegetation_s542           44.68       0.00       0.00      22.36       8.76      13.41      22.18        0.00     4.94   0.496
  Vegetation_s543           44.68      85.17       0.00      25.73      25.79      78.20     103.99        0.01    19.11   0.801
  Vegetation_s544           44.68      44.45       0.00      25.74      17.65      45.60      63.25        0.01    10.33   0.710
  Roof_s545                 44.68       0.00       0.00       0.00      44.45       0.00      44.45        0.00     5.37   0.995
  Street_s546               44.68     106.92       0.00       0.00     151.37       0.00     151.37        0.02    20.86   0.998
  Roof_s602                 44.68       0.00       0.00       0.00      44.45       0.00      44.45        0.00     5.37   0.995
  Roof_s603                 44.68       0.00       0.00       0.00      44.45       0.00      44.45        0.00     5.37   0.995
  Roof_s604                 44.68       0.00       0.00       0.00      44.45       0.00      44.45        0.00     5.37   0.995
  Roof_s605                 44.68       0.00       0.00       0.00      44.45       0.00      44.45        0.00     5.37   0.995
  Roof_s607                 44.68       0.00       0.00       0.00      44.45       0.00      44.45        0.00     5.37   0.995
  Street_s610               44.68      63.02       0.00       0.00     107.46       0.00     107.46        0.01    15.33   0.998
  Street_s611               44.68       0.00       0.00       0.00      44.45       0.00      44.45        0.00     5.37   0.995
  Street_s613               44.68      66.56       0.00       0.00     111.03       0.00     111.03        0.01    15.47   0.998
  Street_s614               44.68       0.00       0.00       0.00      44.46       0.00      44.46        0.00     5.37   0.995
  Vegetation_s615           44.68       0.00       0.00      22.51       8.77      13.26      22.02        0.00     4.72   0.493
  Roof_s617                 44.68       0.00       0.00       0.00      44.45       0.00      44.45        0.00     5.37   0.995
  Roof_s623                 44.68       0.00       0.00       0.00      44.45       0.00      44.45        0.00     5.37   0.995
  Vegetation_s684           44.68      44.45       0.00      25.97      17.65      45.37      63.02        0.01    10.11   0.707
  Street_s685               44.68      22.13       0.00       0.00      66.59       0.00      66.59        0.01    10.16   0.997
  Vegetation_s686           44.68       0.00       0.00      22.40       8.76      13.37      22.13        0.00     4.89   0.495
  Vegetation_s687           44.68       0.00       0.00      22.44       8.77      13.33      22.09        0.00     4.83   0.495
  Vegetation_s694           44.68      88.91       0.00      26.74      26.55      80.18     106.72        0.01    15.46   0.799
  Roof_s695                 44.68       0.00       0.00       0.00      44.45       0.00      44.45        0.00     5.37   0.995
  Vegetation_s696           44.68      44.45       0.00      25.68      17.65      45.67      63.32        0.01    10.37   0.710
  Stone_Paver_s697          44.68       0.00       0.00       0.00      43.82       0.00      43.82        0.00     5.37   0.981
  Stone_Paver_s698          44.68       0.00       0.00       0.00      43.81       0.00      43.81        0.00     5.37   0.981
  Roof_s757                 44.68       0.00       0.00       0.00      44.45       0.00      44.45        0.00     5.37   0.995
  Roof_s767                 44.68       0.00       0.00       0.00      44.45       0.00      44.45        0.00     5.37   0.995
  Vegetation_s768           44.68     106.72       0.00      26.12      30.10      95.05     125.16        0.01    19.94   0.827
  Stone_Paver_s769          44.68     320.56       0.00       0.00     364.38       0.00     364.38        0.04    51.07   0.998
  Stone_Paver_s770          44.68     559.78       0.00       0.00     603.61       0.00     603.61        0.06    82.02   0.999
  Stone_Paver_s771          44.68       0.00       0.00       0.00      43.81       0.00      43.81        0.00     5.37   0.981
  Stone_Paver_s772          44.68      44.45       0.00       0.00      88.27       0.00      88.27        0.01    10.73   0.990
  Roof_s840                 44.68       0.00       0.00       0.00      44.45       0.00      44.45        0.00     5.37   0.995
  Vegetation_s841           44.68     133.36       0.00      27.00      35.44     115.51     150.95        0.02    20.97   0.848
  Roof_s842                 44.68       0.00       0.00       0.00      44.45       0.00      44.45        0.00     5.37   0.995
  Roof_s843                 44.68       0.00       0.00       0.00      44.45       0.00      44.45        0.00     5.37   0.995
  Stone_Paver_s844          44.68     176.54       0.00       0.00     220.41       0.00     220.41        0.02    26.83   0.996
  Roof_s845                 44.68       0.00       0.00       0.00      44.45       0.00      44.45        0.00     5.37   0.995
  Street_s908               44.68       0.00       0.00       0.00      44.41       0.00      44.41        0.00     5.29   0.994
  Vegetation_s913           44.68       0.00       0.00      22.40       8.76      13.37      22.14        0.00     4.89   0.495
  Roof_s914                 44.68       0.00       0.00       0.00      44.45       0.00      44.45        0.00     5.37   0.995
  Roof_s915                 44.68       0.00       0.00       0.00      44.45       0.00      44.45        0.00     5.37   0.995
  Roof_s917                 44.68       0.00       0.00       0.00      44.45       0.00      44.45        0.00     5.37   0.995
  Vegetation_s985           44.68       0.00       0.00      22.54       8.77      13.23      22.00        0.00     4.67   0.492
  Vegetation_s986           44.68      66.59       0.00      25.80      22.08      63.27      85.35        0.01    15.07   0.767
  Roof_s987                 44.68       0.00       0.00       0.00      44.45       0.00      44.45        0.00     5.37   0.995
  Vegetation_s1037          44.68       0.00       0.00      22.43       8.76      13.34      22.11        0.00     4.85   0.495
  Roof_s1041                44.68       0.00       0.00       0.00      44.45       0.00      44.45        0.00     5.37   0.995
  Vegetation_s1042          44.68      44.45       0.00      25.74      17.65      45.60      63.25        0.01    10.33   0.710
  Vegetation_s1043          44.68      44.45       0.00      25.66      17.65      45.69      63.34        0.01    10.38   0.711
  Roof_s1044                44.68       0.00       0.00       0.00      44.45       0.00      44.45        0.00     5.37   0.995
  Vegetation_s1046          44.68      44.45       0.00      25.73      17.65      45.62      63.27        0.01    10.34   0.710
  Street_s1053              44.68       0.00       0.00       0.00      44.46       0.00      44.46        0.00     5.37   0.995
  Vegetation_s1058          44.68       0.00       0.00      22.32       8.76      13.46      22.22        0.00     4.98   0.497
  Street_s1059              44.68     326.36       0.00       0.00     370.83       0.00     370.83        0.04    56.20   0.999
  Vegetation_s1109          44.68       0.00       0.00      22.39       8.76      13.38      22.15        0.00     4.90   0.496
  Vegetation_s1110          44.68       0.00       0.00      22.33       8.76      13.45      22.21        0.00     4.97   0.497
  Vegetation_s1111          44.68      22.11       0.00      23.77      13.18      29.71      42.89        0.00     9.67   0.642
  Vegetation_s1112          44.68       0.00       0.00      22.36       8.76      13.41      22.18        0.00     4.94   0.496
  Street_s1113              44.68       0.00       0.00       0.00      44.44       0.00      44.44        0.00     5.37   0.995
  Street_s1114              44.68       0.00       0.00       0.00      44.44       0.00      44.44        0.00     5.37   0.995
  Street_s1115              44.68      63.25       0.00       0.00     107.70       0.00     107.70        0.01    15.63   0.998
  Street_s1116              44.68      63.34       0.00       0.00     107.79       0.00     107.79        0.01    15.70   0.998
  Street_s1117              44.68       0.00       0.00       0.00      44.46       0.00      44.46        0.00     5.37   0.995
  Vegetation_s1118          44.68      63.27       0.00      25.30      21.41      61.11      82.52        0.01    15.22   0.764
  Roof_s1119                44.68       0.00       0.00       0.00      44.45       0.00      44.45        0.00     5.37   0.995
  Vegetation_s1130          44.68      44.45       0.00      25.59      17.66      45.77      63.43        0.01    10.40   0.712
  Street_s1131              44.68      63.43       0.00       0.00     107.88       0.00     107.88        0.01    15.75   0.998
  Street_s1132              44.68      44.45       0.00       0.00      88.92       0.00      88.92        0.01    10.73   0.998
  Vegetation_s1181          44.68       0.00       0.00      22.35       8.76      13.42      22.18        0.00     4.95   0.497
  Vegetation_s1182          44.68       0.00       0.00      22.34       8.76      13.44      22.20        0.00     4.97   0.497
  Street_s1183              44.68      22.15       0.00       0.00      66.60       0.00      66.60        0.01    10.20   0.997
  Street_s1184              44.68     567.03       0.00       0.00     611.49       0.00     611.49        0.06   100.83   1.000
  Street_s1185              44.68      86.17       0.00       0.00     130.63       0.00     130.63        0.01    24.03   0.998
  Street_s1186              44.68      22.20       0.00       0.00      66.65       0.00      66.65        0.01    10.27   0.997
  Street_s1189              44.68       0.00       0.00       0.00      44.41       0.00      44.41        0.00     5.29   0.994
  Street_s1190              44.68       0.00       0.00       0.00      44.44       0.00      44.44        0.00     5.37   0.995
  Street_s1191              44.68      82.52       0.00       0.00     126.97       0.00     126.97        0.01    20.41   0.998
  Vegetation_s1192          44.68      44.45       0.00      25.62      17.65      45.73      63.38        0.01    10.39   0.711
  Roof_s1193                44.68       0.00       0.00       0.00      44.45       0.00      44.45        0.00     5.37   0.995
  Vegetation_s1195          44.68      44.45       0.00      25.86      17.65      45.48      63.13        0.01    10.23   0.708
  Roof_s1203                44.68       0.00       0.00       0.00      44.45       0.00      44.45        0.00     5.37   0.995
  Roof_s1205                44.68       0.00       0.00       0.00      44.45       0.00      44.45        0.00     5.37   0.995
  Vegetation_s1252          44.68       0.00       0.00      22.30       8.76      13.48      22.24        0.00     4.99   0.498
  Vegetation_s1253          44.68       0.00       0.00      22.34       8.76      13.44      22.20        0.00     4.96   0.497
  Vegetation_s1254          44.68       0.00       0.00      22.27       8.76      13.52      22.28        0.00     5.02   0.499
  Street_s1255              44.68      22.18       0.00       0.00      66.64       0.00      66.64        0.01    10.26   0.997
  Street_s1256              44.68     346.50       0.00       0.00     390.99       0.00     390.99        0.04    62.86   1.000
  Vegetation_s1257          44.68       0.00       0.00      22.33       8.76      13.44      22.21        0.00     4.97   0.497
  Vegetation_s1258          44.68       0.00       0.00      22.40       8.76      13.37      22.13        0.00     4.89   0.495
  Vegetation_s1259          44.68      44.22       0.00      24.79      17.60      46.39      63.99        0.01    14.15   0.720
  Vegetation_s1260          44.68       0.00       0.00      22.34       8.76      13.43      22.20        0.00     4.96   0.497
  Street_s1264              44.68      44.45       0.00       0.00      88.92       0.00      88.92        0.01    10.73   0.998
  Street_s1265              44.68      63.38       0.00       0.00     107.83       0.00     107.83        0.01    15.73   0.998
  Street_s1266              44.68       0.00       0.00       0.00      44.46       0.00      44.46        0.00     5.37   0.995
  Vegetation_s1267          44.68      63.13       0.00      25.27      21.38      61.03      82.41        0.01    15.06   0.764
  Roof_s1268                44.68       0.00       0.00       0.00      44.45       0.00      44.45        0.00     5.37   0.995
  Vegetation_s1270          44.68      44.45       0.00      25.97      17.65      45.37      63.02        0.01    10.11   0.707
  Vegetation_s1271          44.68       0.00       0.00      22.39       8.76      13.38      22.15        0.00     4.90   0.496
  Vegetation_s1272          44.68       0.00       0.00      22.48       8.77      13.29      22.05        0.00     4.77   0.494
  Street_s1281              44.68      44.45       0.00       0.00      88.91       0.00      88.91        0.01    10.73   0.998
  Street_s1292              44.68       0.00       0.00       0.00      44.46       0.00      44.46        0.00     5.37   0.995
  Vegetation_s1293          44.68       0.00       0.00      22.38       8.76      13.40      22.16        0.00     4.92   0.496
  Vegetation_s1294          44.68       0.00       0.00      22.44       8.77      13.33      22.09        0.00     4.83   0.494
  Vegetation_s1324          44.68       0.00       0.00      22.49       8.77      13.28      22.04        0.00     4.75   0.493
  Vegetation_s1325          44.68       0.00       0.00      22.30       8.76      13.48      22.24        0.00     4.99   0.498
  Street_s1326              44.68     110.97       0.00       0.00     155.44       0.00     155.44        0.02    25.12   0.999
  Street_s1327              44.68     487.47       0.00       0.00     531.95       0.00     531.95        0.05    76.54   1.000
  Stone_Paver_s1328         44.68      44.45       0.00       0.00      88.27       0.00      88.27        0.01    10.73   0.990
  Vegetation_s1329          44.68     128.63       0.00      25.78      34.48     112.96     147.44        0.01    28.17   0.851
  Vegetation_s1330          44.68       0.00       0.00      22.59       8.77      13.18      21.95        0.00     4.59   0.491
  Vegetation_s1331          44.68       0.00       0.00      22.56       8.77      13.21      21.97        0.00     4.64   0.492
  Vegetation_s1332          44.68       0.00       0.00      22.29       8.76      13.49      22.25        0.00     5.00   0.498
  Street_s1338              44.68       0.00       0.00       0.00      44.45       0.00      44.45        0.00     5.37   0.995
  Street_s1339              44.68     133.10       0.00       0.00     177.59       0.00     177.59        0.02    25.37   0.999
  Street_s1340              44.68      82.41       0.00       0.00     126.85       0.00     126.85        0.01    20.20   0.998
  Roof_s1343                44.68       0.00       0.00       0.00      44.45       0.00      44.45        0.00     5.37   0.995
  Vegetation_s1344          44.68     215.14       0.00      26.51      51.79     181.47     233.26        0.02    39.96   0.898
  Vegetation_s1345          44.68      44.45       0.00      25.55      17.65      45.81      63.46        0.01    10.41   0.712
  Street_s1352              44.68      44.45       0.00       0.00      88.92       0.00      88.92        0.01    10.73   0.998
  Roof_s1353                44.68       0.00       0.00       0.00      44.45       0.00      44.45        0.00     5.37   0.995
  Roof_s1354                44.68       0.00       0.00       0.00      44.45       0.00      44.45        0.00     5.37   0.995
  Vegetation_s1359          44.68       0.00       0.00      22.34       8.76      13.43      22.20        0.00     4.96   0.497
  Vegetation_s1360          44.68       0.00       0.00      22.49       8.77      13.28      22.05        0.00     4.76   0.493
  Street_s1365              44.68      22.16       0.00       0.00      66.62       0.00      66.62        0.01    10.21   0.997
  Vegetation_s1366          44.68       0.00       0.00      22.39       8.76      13.38      22.15        0.00     4.90   0.496
  Vegetation_s1367          44.68      44.45       0.00      25.70      17.65      45.64      63.29        0.01    10.36   0.710
  Stone_Paver_s1368         44.68      85.39       0.00       0.00     129.20       0.00     129.20        0.01    20.41   0.993
  Vegetation_s1397          44.68       0.00       0.00      22.50       8.77      13.27      22.04        0.00     4.74   0.493
  Street_s1398              44.68      22.04       0.00       0.00      66.49       0.00      66.49        0.01     9.99   0.997
  Street_s1399              44.68     199.24       0.00       0.00     243.74       0.00     243.74        0.02    31.29   0.999
  Stone_Paver_s1400         44.68       0.00       0.00       0.00      43.81       0.00      43.81        0.00     5.37   0.981
  Roof_s1401                44.68       0.00       0.00       0.00      44.45       0.00      44.45        0.00     5.37   0.995
  Vegetation_s1402          44.68       0.00       0.00      22.33       8.76      13.45      22.21        0.00     4.97   0.497
  Vegetation_s1403          44.68      87.97       0.00      26.11      26.35      80.07     106.42        0.01    19.22   0.802
  Vegetation_s1412          44.68       0.00       0.00      22.38       8.76      13.39      22.16        0.00     4.91   0.496
  Street_s1413              44.68      22.03       0.00       0.00      66.48       0.00      66.48        0.01     9.95   0.997
  Street_s1414              44.68      42.49       0.00       0.00      86.94       0.00      86.94        0.01    13.81   0.997
  Street_s1415              44.68       0.00       0.00       0.00      44.45       0.00      44.45        0.00     5.37   0.995
  Vegetation_s1416          44.68     233.26       0.00      26.24      55.43     196.24     251.67        0.03    43.93   0.905
  Roof_s1417                44.68       0.00       0.00       0.00      44.45       0.00      44.45        0.00     5.37   0.995
  Roof_s1418                44.68       0.00       0.00       0.00      44.45       0.00      44.45        0.00     5.37   0.995
  Vegetation_s1419          44.68       0.00       0.00      22.35       8.76      13.42      22.19        0.00     4.95   0.497
  Street_s1431              44.68     133.37       0.00       0.00     177.85       0.00     177.85        0.02    21.47   0.999
  Street_s1432              44.68      44.24       0.00       0.00      88.71       0.00      88.71        0.01    14.91   0.998
  Vegetation_s1433          44.68       0.00       0.00      22.42       8.76      13.36      22.12        0.00     4.87   0.495
  Vegetation_s1439          44.68      22.15       0.00      24.08      13.19      29.41      42.60        0.00     9.06   0.637
  Roof_s1440                44.68       0.00       0.00       0.00      44.45       0.00      44.45        0.00     5.37   0.995
  Stone_Paver_s1441         44.68     132.04       0.00       0.00     175.90       0.00     175.90        0.02    21.46   0.995
  Stone_Paver_s1442         44.68       0.00       0.00       0.00      43.80       0.00      43.80        0.00     5.37   0.980
  Stone_Paver_s1443         44.68      88.91       0.00       0.00     132.72       0.00     132.72        0.01    16.01   0.993
  Roof_s1467                44.68       0.00       0.00       0.00      44.45       0.00      44.45        0.00     5.37   0.995
  Vegetation_s1468          44.68      44.45       0.00      25.91      17.65      45.43      63.09        0.01    10.19   0.708
  Vegetation_s1469          44.68       0.00       0.00      22.31       8.76      13.47      22.23        0.00     4.99   0.498
  Street_s1470              44.68       0.00       0.00       0.00      44.46       0.00      44.46        0.00     5.37   0.995
  Street_s1471              44.68      66.50       0.00       0.00     110.97       0.00     110.97        0.01    15.35   0.998
  Stone_Paver_s1473         44.68      44.45       0.00       0.00      88.27       0.00      88.27        0.01    10.73   0.990
  Roof_s1474                44.68       0.00       0.00       0.00      44.45       0.00      44.45        0.00     5.37   0.995
  Stone_Paver_s1475         44.68       0.00       0.00       0.00      43.81       0.00      43.81        0.00     5.37   0.980
  Vegetation_s1476          44.68       0.00       0.00      22.41       8.76      13.36      22.13        0.00     4.88   0.495
  Vegetation_s1477          44.68       0.00       0.00      22.50       8.77      13.27      22.03        0.00     4.73   0.493
  Vegetation_s1485          44.68       0.00       0.00      22.50       8.77      13.27      22.03        0.00     4.73   0.493
  Vegetation_s1486          44.68      21.95       0.00      23.99      13.15      29.34      42.49        0.00     8.90   0.638
  Street_s1488              44.68       0.00       0.00       0.00      44.44       0.00      44.44        0.00     5.37   0.995
  Street_s1489              44.68     251.67       0.00       0.00     296.15       0.00     296.15        0.03    48.10   0.999
  Street_s1490              44.68       0.00       0.00       0.00      44.46       0.00      44.46        0.00     5.37   0.995
  Vegetation_s1491          44.68       0.00       0.00      22.31       8.76      13.47      22.23        0.00     4.99   0.498
  Vegetation_s1492          44.68      22.19       0.00      23.92      13.20      29.61      42.81        0.00     9.60   0.640
  Roof_s1504                44.68       0.00       0.00       0.00      44.45       0.00      44.45        0.00     5.37   0.995
  Street_s1505              44.68      44.45       0.00       0.00      88.92       0.00      88.92        0.01    10.73   0.998
  Street_s1506              44.68     174.41       0.00       0.00     218.89       0.00     218.89        0.02    31.25   0.999
  Vegetation_s1512          44.68      44.45       0.00      25.70      17.65      45.65      63.30        0.01    10.36   0.710
  Stone_Paver_s1513         44.68     105.90       0.00       0.00     149.72       0.00     149.72        0.01    24.35   0.994
  Roof_s1514                44.68       0.00       0.00       0.00      44.45       0.00      44.45        0.00     5.37   0.995
  Stone_Paver_s1515         44.68       0.00       0.00       0.00      43.78       0.00      43.78        0.00     5.36   0.980
  Roof_s1516                44.68       0.00       0.00       0.00      44.45       0.00      44.45        0.00     5.37   0.995
  Roof_s1517                44.68       0.00       0.00       0.00      44.45       0.00      44.45        0.00     5.37   0.995
  Vegetation_s1541          44.68       0.00       0.00      22.33       8.76      13.45      22.21        0.00     4.97   0.497
  Street_s1542              44.68      85.32       0.00       0.00     129.78       0.00     129.78        0.01    20.38   0.998
  Vegetation_s1558          44.68       0.00       0.00      22.59       8.77      13.18      21.95        0.00     4.59   0.491
  Street_s1562              44.68       0.00       0.00       0.00      44.45       0.00      44.45        0.00     5.37   0.995
  Street_s1563              44.68      44.46       0.00       0.00      88.93       0.00      88.93        0.01    10.73   0.998
  Street_s1564              44.68      65.04       0.00       0.00     109.50       0.00     109.50        0.01    19.68   0.998
  Vegetation_s1565          44.68       0.00       0.00      22.28       8.76      13.50      22.26        0.00     5.01   0.498
  Vegetation_s1566          44.68       0.00       0.00      22.25       8.76      13.54      22.30        0.00     5.02   0.499
  Roof_s1578                44.68       0.00       0.00       0.00      44.45       0.00      44.45        0.00     5.37   0.995
  Vegetation_s1579          44.68      44.45       0.00      25.63      17.65      45.73      63.38        0.01    10.39   0.711
  Street_s1580              44.68      44.45       0.00       0.00      88.92       0.00      88.92        0.01    10.73   0.998
  Roof_s1585                44.68       0.00       0.00       0.00      44.45       0.00      44.45        0.00     5.37   0.995
  Stone_Paver_s1586         44.68      44.45       0.00       0.00      88.27       0.00      88.27        0.01    10.73   0.990
  Roof_s1587                44.68       0.00       0.00       0.00      44.45       0.00      44.45        0.00     5.37   0.995
  Stone_Paver_s1588         44.68      88.91       0.00       0.00     132.76       0.00     132.76        0.01    16.10   0.994
  Roof_s1589                44.68       0.00       0.00       0.00      44.45       0.00      44.45        0.00     5.37   0.995
  Roof_s1590                44.68       0.00       0.00       0.00      44.45       0.00      44.45        0.00     5.37   0.995
  Vegetation_s1609          44.68       0.00       0.00      22.40       8.76      13.37      22.14        0.00     4.89   0.495
  Vegetation_s1611          44.68       0.00       0.00      22.48       8.77      13.29      22.06        0.00     4.78   0.494
  Vegetation_s1612          44.68       0.00       0.00      22.30       8.76      13.48      22.24        0.00     4.99   0.498
  Street_s1613              44.68       0.00       0.00       0.00      44.46       0.00      44.46        0.00     5.37   0.995
  Street_s1614              44.68     151.99       0.00       0.00     196.45       0.00     196.45        0.02    30.45   0.999
  Street_s1635              44.68       0.00       0.00       0.00      44.46       0.00      44.46        0.00     5.37   0.995
  Street_s1638              44.68      85.45       0.00       0.00     129.90       0.00     129.90        0.01    20.56   0.998
  Street_s1639              44.68      22.30       0.00       0.00      66.76       0.00      66.76        0.01    10.38   0.997
  Roof_s1652                44.68       0.00       0.00       0.00      44.45       0.00      44.45        0.00     5.37   0.995
  Roof_s1653                44.68       0.00       0.00       0.00      44.45       0.00      44.45        0.00     5.37   0.995
  Street_s1654              44.68       0.00       0.00       0.00      44.46       0.00      44.46        0.00     5.37   0.995
  Stone_Paver_s1661         44.68     221.66       0.00       0.00     265.54       0.00     265.54        0.03    32.20   0.997
  Roof_s1662                44.68       0.00       0.00       0.00      44.45       0.00      44.45        0.00     5.37   0.995
  Roof_s1663                44.68       0.00       0.00       0.00      44.45       0.00      44.45        0.00     5.37   0.995
  Stone_Paver_s1667         44.68       0.00       0.00       0.00      43.81       0.00      43.81        0.00     5.37   0.981
  Vegetation_s1680          44.68       0.00       0.00      22.34       8.76      13.43      22.20        0.00     4.96   0.497
  Vegetation_s1681          44.68      22.14       0.00      23.98      13.19      29.51      42.69        0.00     9.33   0.639
  Vegetation_s1682          44.68       0.00       0.00      22.37       8.76      13.41      22.17        0.00     4.93   0.496
  Vegetation_s1683          44.68       0.00       0.00      22.38       8.76      13.39      22.16        0.00     4.91   0.496
  Vegetation_s1684          44.68       0.00       0.00      22.30       8.76      13.48      22.24        0.00     4.99   0.498
  Street_s1685              44.68      44.30       0.00       0.00      88.76       0.00      88.76        0.01    15.00   0.998
  Street_s1686              44.68      44.46       0.00       0.00      88.93       0.00      88.93        0.01    10.73   0.998
  Street_s1708              44.68       0.00       0.00       0.00      44.46       0.00      44.46        0.00     5.37   0.995
  Vegetation_s1712          44.68      44.45       0.00      25.80      17.65      45.54      63.19        0.01    10.29   0.709
  Street_s1714              44.68       0.00       0.00       0.00      44.45       0.00      44.45        0.00     5.37   0.995
  Vegetation_s1715          44.68       0.00       0.00      22.40       8.76      13.37      22.14        0.00     4.89   0.495
  Vegetation_s1724          44.68       0.00       0.00      22.81       8.77      12.95      21.72        0.00     4.19   0.486
  Street_s1725              44.68      44.45       0.00       0.00      88.92       0.00      88.92        0.01    10.73   0.998
  Roof_s1726                44.68       0.00       0.00       0.00      44.45       0.00      44.45        0.00     5.37   0.995
  Street_s1727              44.68      44.46       0.00       0.00      88.93       0.00      88.93        0.01    10.73   0.998
  Vegetation_s1728          44.68       0.00       0.00      22.39       8.76      13.39      22.15        0.00     4.91   0.496
  Roof_s1736                44.68       0.00       0.00       0.00      44.45       0.00      44.45        0.00     5.37   0.995
  Stone_Paver_s1740         44.68     132.72       0.00       0.00     176.60       0.00     176.60        0.02    21.47   0.995
  Roof_s1741                44.68       0.00       0.00       0.00      44.45       0.00      44.45        0.00     5.37   0.995
  Roof_s1742                44.68       0.00       0.00       0.00      44.45       0.00      44.45        0.00     5.37   0.995
  Street_s1752              44.68       0.00       0.00       0.00      44.46       0.00      44.46        0.00     5.37   0.995
  Street_s1753              44.68      64.89       0.00       0.00     109.35       0.00     109.35        0.01    19.30   0.998
  Vegetation_s1754          44.68       0.00       0.00      22.35       8.76      13.42      22.19        0.00     4.95   0.497
  Vegetation_s1755          44.68      22.17       0.00      23.95      13.19      29.56      42.76        0.00     9.49   0.640
  Vegetation_s1756          44.68       0.00       0.00      22.32       8.76      13.45      22.22        0.00     4.98   0.497
  Street_s1757              44.68      44.39       0.00       0.00      88.86       0.00      88.86        0.01    15.17   0.998
  Street_s1758              44.68       0.00       0.00       0.00      44.46       0.00      44.46        0.00     5.37   0.995
  Street_s1781              44.68       0.00       0.00       0.00      44.46       0.00      44.46        0.00     5.37   0.995
  Street_s1782              44.68       0.00       0.00       0.00      44.45       0.00      44.45        0.00     5.37   0.995
  Roof_s1785                44.68       0.00       0.00       0.00      44.45       0.00      44.45        0.00     5.37   0.995
  Street_s1788              44.68      22.14       0.00       0.00      66.59       0.00      66.59        0.01    10.16   0.997
  Vegetation_s1797          44.68       0.00       0.00      22.57       8.77      13.19      21.96        0.00     4.62   0.492
  Vegetation_s1798          44.68     110.64       0.00      26.76      30.89      97.55     128.44        0.01    19.25   0.827
  Vegetation_s1799          44.68       0.00       0.00      22.31       8.76      13.47      22.23        0.00     4.99   0.498
  Street_s1800              44.68     133.31       0.00       0.00     177.80       0.00     177.80        0.02    25.89   0.999
  Vegetation_s1801          44.68       0.00       0.00      22.39       8.76      13.38      22.15        0.00     4.90   0.496
  Stone_Paver_s1808         44.68     133.36       0.00       0.00     177.23       0.00     177.23        0.02    21.47   0.995
  Roof_s1809                44.68       0.00       0.00       0.00      44.45       0.00      44.45        0.00     5.37   0.995
  Roof_s1813                44.68       0.00       0.00       0.00      44.45       0.00      44.45        0.00     5.37   0.995
  Stone_Paver_s1814         44.68      88.91       0.00       0.00     132.76       0.00     132.76        0.01    16.10   0.994
  Roof_s1815                44.68       0.00       0.00       0.00      44.45       0.00      44.45        0.00     5.37   0.995
  Stone_Paver_s1816         44.68       0.00       0.00       0.00      43.81       0.00      43.81        0.00     5.37   0.980
  Street_s1826              44.68       0.00       0.00       0.00      44.45       0.00      44.45        0.00     5.37   0.995
  Street_s1827              44.68      64.95       0.00       0.00     109.41       0.00     109.41        0.01    19.47   0.998
  Street_s1828              44.68       0.00       0.00       0.00      44.46       0.00      44.46        0.00     5.37   0.995
  Street_s1829              44.68     111.08       0.00       0.00     155.55       0.00     155.55        0.02    25.32   0.999
  Street_s1855              44.68      44.44       0.00       0.00      88.90       0.00      88.90        0.01    15.23   0.998
  Street_s1856              44.68       0.00       0.00       0.00      44.45       0.00      44.45        0.00     5.37   0.995
  Vegetation_s1870          44.68      44.45       0.00      25.87      17.65      45.47      63.13        0.01    10.23   0.708
  Vegetation_s1871          44.68      21.96       0.00      23.94      13.15      29.41      42.56        0.00     9.05   0.639
  Street_s1872              44.68     128.44       0.00       0.00     172.88       0.00     172.88        0.02    24.19   0.999
  Street_s1873              44.68       0.00       0.00       0.00      44.46       0.00      44.46        0.00     5.37   0.995
  Street_s1874              44.68      22.15       0.00       0.00      66.59       0.00      66.59        0.01    10.16   0.997
  Roof_s1881                44.68       0.00       0.00       0.00      44.45       0.00      44.45        0.00     5.37   0.995
  Stone_Paver_s1886         44.68      88.91       0.00       0.00     132.76       0.00     132.76        0.01    16.10   0.994
  Stone_Paver_s1887         44.68     132.76       0.00       0.00     176.59       0.00     176.59        0.02    21.47   0.995
  Stone_Paver_s1888         44.68      43.81       0.00       0.00      87.62       0.00      87.62        0.01    10.73   0.990
  Stone_Paver_s1889         44.68       0.00       0.00       0.00      43.82       0.00      43.82        0.00     5.37   0.981
  Street_s1900              44.68     198.31       0.00       0.00     242.80       0.00     242.80        0.02    35.12   0.999
  Street_s1901              44.68       0.00       0.00       0.00      44.45       0.00      44.45        0.00     5.37   0.995
  Vegetation_s1927          44.68       0.00       0.00      22.35       8.76      13.42      22.19        0.00     4.95   0.497
  Vegetation_s1928          44.68       0.00       0.00      22.29       8.76      13.49      22.25        0.00     5.00   0.498
  Street_s1929              44.68      64.23       0.00       0.00     108.69       0.00     108.69        0.01    19.71   0.998
  Street_s1930              44.68       0.00       0.00       0.00      44.41       0.00      44.41        0.00     5.29   0.994
  Vegetation_s1942          44.68      44.45       0.00      25.79      17.65      45.55      63.21        0.01    10.30   0.709
  Roof_s1943                44.68       0.00       0.00       0.00      44.45       0.00      44.45        0.00     5.37   0.995
  Vegetation_s1944          44.68      63.13       0.00      25.42      21.38      60.87      82.25        0.01    14.88   0.763
  Street_s1945              44.68     215.44       0.00       0.00     259.89       0.00     259.89        0.03    37.72   0.999
  Street_s1948              44.68       0.00       0.00       0.00      44.43       0.00      44.43        0.00     5.37   0.994
  Street_s1949              44.68       0.00       0.00       0.00      44.41       0.00      44.41        0.00     5.29   0.994
  Roof_s1958                44.68       0.00       0.00       0.00      44.45       0.00      44.45        0.00     5.37   0.995
  Roof_s1959                44.68       0.00       0.00       0.00      44.45       0.00      44.45        0.00     5.37   0.995
  Stone_Paver_s1960         44.68     699.26       0.00       0.00     743.10       0.00     743.10        0.07    95.44   0.999
  Stone_Paver_s1961         44.68      43.82       0.00       0.00      87.64       0.00      87.64        0.01    10.73   0.990
  Vegetation_s1962          44.68      88.91       0.00      26.36      26.54      80.57     107.11        0.01    15.70   0.802
  Roof_s1964                44.68       0.00       0.00       0.00      44.45       0.00      44.45        0.00     5.37   0.995
  Vegetation_s1965          44.68      44.45       0.00      25.58      17.65      45.78      63.43        0.01    10.40   0.712
  Street_s1966              44.68       0.00       0.00       0.00      44.46       0.00      44.46        0.00     5.37   0.995
  Street_s1973              44.68     287.25       0.00       0.00     331.73       0.00     331.73        0.03    45.23   0.999
  Vegetation_s2000          44.68       0.00       0.00      22.27       8.76      13.51      22.27        0.00     5.01   0.498
  Vegetation_s2001          44.68      44.45       0.00      24.78      17.65      46.58      64.23        0.01    14.65   0.721
  Street_s2002              44.68     107.44       0.00       0.00     151.90       0.00     151.90        0.02    25.04   0.999
  Street_s2003              44.68       0.00       0.00       0.00      44.44       0.00      44.44        0.00     5.37   0.995
  Vegetation_s2014          44.68      44.45       0.00      25.79      17.65      45.55      63.21        0.01    10.30   0.709
  Roof_s2015                44.68       0.00       0.00       0.00      44.45       0.00      44.45        0.00     5.37   0.995
  Vegetation_s2016          44.68      63.21       0.00      25.40      21.40      60.96      82.35        0.01    15.03   0.763
  Street_s2017              44.68      82.25       0.00       0.00     126.70       0.00     126.70        0.01    19.91   0.998
  Street_s2022              44.68       0.00       0.00       0.00      44.46       0.00      44.46        0.00     5.37   0.995
  Street_s2023              44.68       0.00       0.00       0.00      44.45       0.00      44.45        0.00     5.37   0.995
  Vegetation_s2027          44.68      44.45       0.00      25.79      17.65      45.55      63.20        0.01    10.30   0.709
  Roof_s2032                44.68       0.00       0.00       0.00      44.45       0.00      44.45        0.00     5.37   0.995
  Roof_s2033                44.68       0.00       0.00       0.00      44.45       0.00      44.45        0.00     5.37   0.995
  Vegetation_s2034          44.68     107.11       0.00      25.94      30.18      95.56     125.74        0.01    20.53   0.828
  Roof_s2035                44.68       0.00       0.00       0.00      44.45       0.00      44.45        0.00     5.37   0.995
  Roof_s2036                44.68       0.00       0.00       0.00      44.45       0.00      44.45        0.00     5.37   0.995
  Roof_s2037                44.68       0.00       0.00       0.00      44.45       0.00      44.45        0.00     5.37   0.995
  Street_s2038              44.68     107.88       0.00       0.00     152.35       0.00     152.35        0.02    21.12   0.999
  Vegetation_s2073          44.68       0.00       0.00      22.37       8.76      13.41      22.17        0.00     4.93   0.496
  Vegetation_s2074          44.68      66.60       0.00      25.91      22.08      63.17      85.25        0.01    15.00   0.766
  Vegetation_s2075          44.68       0.00       0.00      22.35       8.76      13.43      22.19        0.00     4.95   0.497
  Street_s2076              44.68      22.15       0.00       0.00      66.61       0.00      66.61        0.01    10.19   0.997
  Roof_s2087                44.68       0.00       0.00       0.00      44.45       0.00      44.45        0.00     5.37   0.995
  Vegetation_s2088          44.68      63.21       0.00      25.37      21.40      60.98      82.38        0.01    15.07   0.764
  Street_s2089              44.68      82.35       0.00       0.00     126.80       0.00     126.80        0.01    20.12   0.998
  Street_s2090              44.68       0.00       0.00       0.00      44.45       0.00      44.45        0.00     5.37   0.995
  Street_s2097              44.68       0.00       0.00       0.00      44.44       0.00      44.44        0.00     5.37   0.995
  Street_s2098              44.68       0.00       0.00       0.00      44.44       0.00      44.44        0.00     5.37   0.995
  Vegetation_s2099          44.68      63.20       0.00      25.39      21.40      60.96      82.36        0.01    15.04   0.763
  Roof_s2100                44.68       0.00       0.00       0.00      44.45       0.00      44.45        0.00     5.37   0.995
  Roof_s2109                44.68       0.00       0.00       0.00      44.45       0.00      44.45        0.00     5.37   0.995
  Street_s2110              44.68      44.45       0.00       0.00      88.91       0.00      88.91        0.01    10.73   0.998
  Street_s2111              44.68       0.00       0.00       0.00      44.46       0.00      44.46        0.00     5.37   0.995
  Vegetation_s2146          44.68       0.00       0.00      22.39       8.76      13.38      22.14        0.00     4.90   0.496
  Roof_s2147                44.68       0.00       0.00       0.00      44.45       0.00      44.45        0.00     5.37   0.995
  Vegetation_s2148          44.68       0.00       0.00      22.38       8.76      13.39      22.15        0.00     4.91   0.496
  Street_s2149              44.68      22.21       0.00       0.00      66.67       0.00      66.67        0.01    10.29   0.997
  Roof_s2160                44.68       0.00       0.00       0.00      44.45       0.00      44.45        0.00     5.37   0.995
  Street_s2161              44.68     149.05       0.00       0.00     193.52       0.00     193.52        0.02    30.49   0.999
  Street_s2162              44.68       0.00       0.00       0.00      44.45       0.00      44.45        0.00     5.37   0.995
  Street_s2171              44.68       0.00       0.00       0.00      44.44       0.00      44.44        0.00     5.37   0.995
  Street_s2172              44.68      82.36       0.00       0.00     126.81       0.00     126.81        0.01    20.13   0.998
  Vegetation_s2173          44.68      44.45       0.00      25.66      17.65      45.70      63.35        0.01    10.38   0.711
  Roof_s2174                44.68       0.00       0.00       0.00      44.45       0.00      44.45        0.00     5.37   0.995
  Vegetation_s2182          44.68       0.00       0.00      22.28       8.76      13.50      22.26        0.00     5.01   0.498
  Street_s2183              44.68      88.91       0.00       0.00     133.38       0.00     133.38        0.01    16.10   0.998
  Vegetation_s2221          44.68       0.00       0.00      22.33       8.76      13.45      22.21        0.00     4.97   0.497
  Street_s2222              44.68      22.22       0.00       0.00      66.67       0.00      66.67        0.01    10.30   0.997
  Street_s2223              44.68       0.00       0.00       0.00      44.41       0.00      44.41        0.00     5.29   0.994
  Vegetation_s2233          44.68       0.00       0.00      22.33       8.76      13.45      22.21        0.00     4.97   0.497
  Street_s2234              44.68      22.13       0.00       0.00      66.59       0.00      66.59        0.01    10.16   0.997
  Vegetation_s2237          44.68       0.00       0.00      22.38       8.76      13.39      22.16        0.00     4.91   0.496
  Street_s2246              44.68      63.35       0.00       0.00     107.80       0.00     107.80        0.01    15.71   0.998
  Street_s2247              44.68       0.00       0.00       0.00      44.45       0.00      44.45        0.00     5.37   0.995
  Street_s2255              44.68      22.26       0.00       0.00      66.72       0.00      66.72        0.01    10.35   0.997
  Vegetation_s2294          44.68       0.00       0.00      22.32       8.76      13.45      22.22        0.00     4.98   0.497
  Street_s2295              44.68      22.21       0.00       0.00      66.67       0.00      66.67        0.01    10.29   0.997
  Street_s2296              44.68       0.00       0.00       0.00      44.41       0.00      44.41        0.00     5.29   0.994
  Vegetation_s2306          44.68       0.00       0.00      22.41       8.76      13.37      22.13        0.00     4.88   0.495
  Street_s2307              44.68      22.14       0.00       0.00      66.59       0.00      66.59        0.01    10.18   0.997
  Vegetation_s2308          44.68       0.00       0.00      22.50       8.77      13.27      22.03        0.00     4.73   0.493
  Street_s2310              44.68      44.21       0.00       0.00      88.67       0.00      88.67        0.01    14.87   0.998
  Vegetation_s2311          44.68       0.00       0.00      22.35       8.76      13.43      22.19        0.00     4.95   0.497
  Street_s2321              44.68       0.00       0.00       0.00      44.45       0.00      44.45        0.00     5.37   0.995
  Street_s2322              44.68       0.00       0.00       0.00      44.45       0.00      44.45        0.00     5.37   0.995
  Vegetation_s2323          44.68      44.45       0.00      25.96      17.65      45.38      63.04        0.01    10.13   0.707
  Roof_s2324                44.68       0.00       0.00       0.00      44.45       0.00      44.45        0.00     5.37   0.995
  Street_s2328              44.68      44.45       0.00       0.00      88.92       0.00      88.92        0.01    10.73   0.998
  Vegetation_s2367          44.68       0.00       0.00      22.33       8.76      13.45      22.21        0.00     4.97   0.497
  Street_s2368              44.68      88.89       0.00       0.00     133.36       0.00     133.36        0.01    20.54   0.998
  Street_s2369              44.68       0.00       0.00       0.00      44.43       0.00      44.43        0.00     5.37   0.994
  Vegetation_s2379          44.68       0.00       0.00      22.40       8.76      13.37      22.14        0.00     4.89   0.495
  Street_s2380              44.68      44.16       0.00       0.00      88.62       0.00      88.62        0.01    14.77   0.998
  Vegetation_s2381          44.68       0.00       0.00      22.53       8.77      13.23      22.00        0.00     4.68   0.492
  Vegetation_s2382          44.68       0.00       0.00      22.48       8.77      13.29      22.06        0.00     4.77   0.494
  Street_s2384              44.68      22.19       0.00       0.00      66.65       0.00      66.65        0.01    10.26   0.997
  Vegetation_s2386          44.68       0.00       0.00      22.42       8.76      13.35      22.11        0.00     4.86   0.495
  Street_s2395              44.68      63.04       0.00       0.00     107.48       0.00     107.48        0.01    15.33   0.998
  Street_s2396              44.68       0.00       0.00       0.00      44.46       0.00      44.46        0.00     5.37   0.995
  Vegetation_s2397          44.68       0.00       0.00      22.51       8.77      13.25      22.02        0.00     4.72   0.493
  Street_s2400              44.68     152.08       0.00       0.00     196.54       0.00     196.54        0.02    26.27   0.999
  Roof_s2401                44.68       0.00       0.00       0.00      44.45       0.00      44.45        0.00     5.37   0.995
  Vegetation_s2440          44.68       0.00       0.00      22.34       8.76      13.43      22.20        0.00     4.96   0.497
  Street_s2441              44.68      22.23       0.00       0.00      66.69       0.00      66.69        0.01    10.32   0.997
  Street_s2442              44.68      44.46       0.00       0.00      88.93       0.00      88.93        0.01    10.73   0.998
  Vegetation_s2452          44.68       0.00       0.00      22.41       8.76      13.36      22.13        0.00     4.88   0.495
  Street_s2453              44.68     132.70       0.00       0.00     177.19       0.00     177.19        0.02    29.41   0.999
  Vegetation_s2454          44.68       0.00       0.00      22.39       8.76      13.38      22.15        0.00     4.90   0.496
  Street_s2459              44.68      22.11       0.00       0.00      66.56       0.00      66.56        0.01    10.11   0.997
  Street_s2469              44.68      66.48       0.00       0.00     110.95       0.00     110.95        0.01    15.32   0.998
  Vegetation_s2470          44.68       0.00       0.00      22.50       8.77      13.27      22.03        0.00     4.73   0.493
  Vegetation_s2474          44.68      44.45       0.00      25.83      17.65      45.51      63.16        0.01    10.26   0.709
  Vegetation_s2513          44.68       0.00       0.00      22.31       8.76      13.47      22.23        0.00     4.99   0.498
  Street_s2514              44.68       0.00       0.00       0.00      44.46       0.00      44.46        0.00     5.37   0.995
  Street_s2515              44.68       0.00       0.00       0.00      44.46       0.00      44.46        0.00     5.37   0.995
  Vegetation_s2525          44.68       0.00       0.00      22.50       8.77      13.27      22.04        0.00     4.74   0.493
  Street_s2526              44.68       0.00       0.00       0.00      44.46       0.00      44.46        0.00     5.37   0.995
  Vegetation_s2527          44.68       0.00       0.00      22.49       8.77      13.28      22.05        0.00     4.76   0.493
  Street_s2542              44.68      22.03       0.00       0.00      66.48       0.00      66.48        0.01     9.96   0.997
  Street_s2543              44.68       0.00       0.00       0.00      44.47       0.00      44.47        0.00     5.37   0.995
  Street_s2544              44.68      22.18       0.00       0.00      66.64       0.00      66.64        0.01    10.24   0.997
  Roof_s2547                44.68       0.00       0.00       0.00      44.45       0.00      44.45        0.00     5.37   0.995
  Vegetation_s2586          44.68      44.45       0.00      25.57      17.65      45.79      63.44        0.01    10.40   0.712
  Street_s2587              44.68      63.44       0.00       0.00     107.89       0.00     107.89        0.01    15.76   0.998
  Street_s2588              44.68       0.00       0.00       0.00      44.46       0.00      44.46        0.00     5.37   0.995
  Vegetation_s2589          44.68       0.00       0.00      23.13       8.77      12.63      21.39        0.00     3.66   0.479
  Roof_s2613                44.68       0.00       0.00       0.00      44.45       0.00      44.45        0.00     5.37   0.995
  Street_s2614              44.68      44.45       0.00       0.00      88.89       0.00      88.89        0.01    10.67   0.997
  Street_s2615              44.68       0.00       0.00       0.00      44.45       0.00      44.45        0.00     5.37   0.995
  Street_s2616              44.68     200.03       0.00       0.00     244.55       0.00     244.55        0.02    31.63   0.999
  Street_s2617              44.68       0.00       0.00       0.00      44.47       0.00      44.47        0.00     5.37   0.995
  Vegetation_s2618          44.68       0.00       0.00      22.36       8.76      13.42      22.18        0.00     4.94   0.496
  Roof_s2659                44.68       0.00       0.00       0.00      44.45       0.00      44.45        0.00     5.37   0.995
  Vegetation_s2660          44.68      63.41       0.00      25.28      21.45      61.25      82.70        0.01    15.36   0.765
  Street_s2661              44.68     323.08       0.00       0.00     369.57       0.00     369.57        0.04    57.47   1.005
  Street_s2675              44.68     109.59       0.00       0.00     154.06       0.00     154.06        0.02    25.26   0.999
  Roof_s2676                44.68       0.00       0.00       0.00      44.45       0.00      44.45        0.00     5.37   0.995
  Street_s2687              44.68       0.00       0.00       0.00      44.41       0.00      44.41        0.00     5.29   0.994
  Street_s2688              44.68       0.00       0.00       0.00      44.45       0.00      44.45        0.00     5.37   0.995
  Street_s2690              44.68       0.00       0.00       0.00      44.46       0.00      44.46        0.00     5.37   0.995
  Vegetation_s2732          44.68      44.45       0.00      25.59      17.65      45.76      63.41        0.01    10.40   0.711
  Vegetation_s2733          44.68       0.00       0.00      22.35       8.76      13.42      22.18        0.00     4.94   0.497
  Street_s2734              44.68       0.00       0.00       0.00      44.46       0.00      44.46        0.00     5.37   0.995
  Street_s2746              44.68     241.15       0.00       0.00     285.62       0.00     285.62        0.03    37.15   0.999
  Vegetation_s2747          44.68       0.00       0.00      22.34       8.76      13.44      22.20        0.00     4.96   0.497
  Vegetation_s2748          44.68      22.15       0.00      23.76      13.19      29.76      42.94        0.00     9.76   0.643
  Street_s2749              44.68      66.69       0.00       0.00     111.15       0.00     111.15        0.01    15.69   0.998
  Roof_s2750                44.68       0.00       0.00       0.00      44.45       0.00      44.45        0.00     5.37   0.995
  Street_s2759              44.68       0.00       0.00       0.00      44.41       0.00      44.41        0.00     5.29   0.994
  Roof_s2805                44.68       0.00       0.00       0.00      44.45       0.00      44.45        0.00     5.37   0.995
  Vegetation_s2806          44.68       0.00       0.00      22.36       8.76      13.41      22.18        0.00     4.94   0.496
  Street_s2807              44.68       0.00       0.00       0.00      44.46       0.00      44.46        0.00     5.37   0.995
  Street_s2808              44.68       0.00       0.00       0.00      44.45       0.00      44.45        0.00     5.37   0.995
  Vegetation_s2818          44.68      44.45       0.00      25.70      17.65      45.65      63.30        0.01    10.36   0.710
  Street_s2819              44.68     133.37       0.00       0.00     177.85       0.00     177.85        0.02    21.46   0.999
  Vegetation_s2820          44.68       0.00       0.00      22.39       8.76      13.39      22.15        0.00     4.91   0.496
  Vegetation_s2821          44.68       0.00       0.00      22.31       8.76      13.47      22.23        0.00     4.99   0.498
  Street_s2822              44.68      66.68       0.00       0.00     111.14       0.00     111.14        0.01    15.68   0.998
  Roof_s2823                44.68       0.00       0.00       0.00      44.45       0.00      44.45        0.00     5.37   0.995
  Street_s2832              44.68       0.00       0.00       0.00      44.41       0.00      44.41        0.00     5.29   0.994
  Street_s2838              44.68       0.00       0.00       0.00      44.46       0.00      44.46        0.00     5.37   0.995
  Vegetation_s2839          44.68       0.00       0.00      22.27       8.76      13.52      22.28        0.00     5.02   0.499
  Vegetation_s2840          44.68      44.45       0.00      25.58      17.65      45.78      63.43        0.01    10.40   0.712
  Roof_s2841                44.68       0.00       0.00       0.00      44.45       0.00      44.45        0.00     5.37   0.995
  Vegetation_s2877          44.68      44.45       0.00      25.96      17.65      45.38      63.04        0.01    10.13   0.707
  Roof_s2878                44.68       0.00       0.00       0.00      44.45       0.00      44.45        0.00     5.37   0.995
  Vegetation_s2879          44.68       0.00       0.00      22.30       8.76      13.48      22.24        0.00     4.99   0.498
  Street_s2880              44.68     111.09       0.00       0.00     155.59       0.00     155.59        0.02    25.51   0.999
  Street_s2881              44.68      44.45       0.00       0.00      88.91       0.00      88.91        0.01    10.73   0.997
  Roof_s2882                44.68       0.00       0.00       0.00      44.45       0.00      44.45        0.00     5.37   0.995
  Roof_s2891                44.68       0.00       0.00       0.00      44.45       0.00      44.45        0.00     5.37   0.995
  Street_s2892              44.68      44.45       0.00       0.00      88.91       0.00      88.91        0.01    10.73   0.998
  Street_s2893              44.68       0.00       0.00       0.00      44.46       0.00      44.46        0.00     5.37   0.995
  Vegetation_s2894          44.68       0.00       0.00      22.31       8.76      13.47      22.23        0.00     4.99   0.497
  Street_s2895              44.68      66.68       0.00       0.00     111.13       0.00     111.13        0.01    15.68   0.998
  Roof_s2896                44.68       0.00       0.00       0.00      44.45       0.00      44.45        0.00     5.37   0.995
  Street_s2905              44.68       0.00       0.00       0.00      44.41       0.00      44.41        0.00     5.29   0.994
  Street_s2911              44.68      88.91       0.00       0.00     133.40       0.00     133.40        0.01    16.10   0.999
  Street_s2912              44.68      85.71       0.00       0.00     130.17       0.00     130.17        0.01    20.75   0.998
  Street_s2913              44.68       0.00       0.00       0.00      44.47       0.00      44.47        0.00     5.37   0.995
  Vegetation_s2914          44.68       0.00       0.00      22.30       8.76      13.48      22.24        0.00     5.00   0.498
  Vegetation_s2915          44.68       0.00       0.00      22.46       8.77      13.31      22.08        0.00     4.80   0.494
  Vegetation_s2916          44.68       0.00       0.00      22.53       8.77      13.24      22.00        0.00     4.69   0.492
  Vegetation_s2947          44.68       0.00       0.00      22.43       8.76      13.34      22.11        0.00     4.85   0.495
  Vegetation_s2949          44.68      63.04       0.00      25.68      21.37      60.53      81.89        0.01    14.20   0.760
  Vegetation_s2952          44.68       0.00       0.00      22.33       8.76      13.45      22.21        0.00     4.97   0.497
  Street_s2953              44.68      22.12       0.00       0.00      66.58       0.00      66.58        0.01    10.15   0.997
  Street_s2954              44.68      44.45       0.00       0.00      88.91       0.00      88.91        0.01    10.73   0.998
  Roof_s2955                44.68       0.00       0.00       0.00      44.45       0.00      44.45        0.00     5.37   0.995
  Street_s2965              44.68       0.00       0.00       0.00      44.45       0.00      44.45        0.00     5.37   0.995
  Street_s2966              44.68       0.00       0.00       0.00      44.46       0.00      44.46        0.00     5.37   0.995
  Vegetation_s2967          44.68       0.00       0.00      22.32       8.76      13.46      22.23        0.00     4.98   0.497
  Street_s2968              44.68      66.69       0.00       0.00     111.15       0.00     111.15        0.01    15.69   0.998
  Roof_s2969                44.68       0.00       0.00       0.00      44.45       0.00      44.45        0.00     5.37   0.995
  Street_s2978              44.68       0.00       0.00       0.00      44.41       0.00      44.41        0.00     5.29   0.994
  Roof_s2983                44.68       0.00       0.00       0.00      44.45       0.00      44.45        0.00     5.37   0.995
  Roof_s2984                44.68       0.00       0.00       0.00      44.45       0.00      44.45        0.00     5.37   0.995
  Street_s2985              44.68       0.00       0.00       0.00      44.45       0.00      44.45        0.00     5.37   0.995
  Street_s2986              44.68      44.47       0.00       0.00      88.94       0.00      88.94        0.01    10.73   0.998
  Street_s2987              44.68     110.78       0.00       0.00     155.24       0.00     155.24        0.02    24.79   0.999
  Street_s2988              44.68      22.00       0.00       0.00      66.46       0.00      66.46        0.01     9.92   0.997
  Street_s2989              44.68       0.00       0.00       0.00      44.47       0.00      44.47        0.00     5.37   0.995
  Vegetation_s3020          44.68      66.56       0.00      26.15      22.08      62.89      84.97        0.01    14.61   0.764
  Vegetation_s3021          44.68      81.89       0.00      25.29      25.14      76.02     101.15        0.01    18.00   0.799
  Vegetation_s3025          44.68       0.00       0.00      22.41       8.76      13.36      22.12        0.00     4.87   0.495
  Street_s3026              44.68       0.00       0.00       0.00      44.46       0.00      44.46        0.00     5.37   0.995
  Street_s3027              44.68      44.45       0.00       0.00      88.92       0.00      88.92        0.01    10.73   0.998
  Roof_s3028                44.68       0.00       0.00       0.00      44.45       0.00      44.45        0.00     5.37   0.995
  Street_s3038              44.68       0.00       0.00       0.00      44.45       0.00      44.45        0.00     5.37   0.995
  Street_s3039              44.68      88.91       0.00       0.00     133.39       0.00     133.39        0.01    16.10   0.998
  Vegetation_s3040          44.68       0.00       0.00      22.31       8.76      13.47      22.24        0.00     4.99   0.498
  Street_s3041              44.68      22.22       0.00       0.00      66.67       0.00      66.67        0.01    10.31   0.997
  Street_s3051              44.68       0.00       0.00       0.00      44.41       0.00      44.41        0.00     5.29   0.994
  Roof_s3056                44.68       0.00       0.00       0.00      44.45       0.00      44.45        0.00     5.37   0.995
  Roof_s3057                44.68       0.00       0.00       0.00      44.45       0.00      44.45        0.00     5.37   0.995
  Sand_Gravel_s3058         44.68      88.91       0.00      77.60       0.00       0.00      55.99        0.01     0.72   0.419
  Street_s3059              44.68       0.00       0.00       0.00      44.46       0.00      44.46        0.00     5.37   0.995
  Street_s3060              44.68       0.00       0.00       0.00      44.47       0.00      44.47        0.00     5.37   0.995
  Street_s3061              44.68       0.00       0.00       0.00      44.47       0.00      44.47        0.00     5.37   0.995
  Vegetation_s3062          44.68      44.47       0.00      25.70      17.66      45.66      63.32        0.01    10.35   0.710
  Roof_s3093                44.68       0.00       0.00       0.00      44.45       0.00      44.45        0.00     5.37   0.995
  Stone_Paver_s3094         44.68     186.12       0.00       0.00     229.94       0.00     229.94        0.02    36.71   0.996
  Vegetation_s3095          44.68       0.00       0.00      22.32       8.76      13.46      22.22        0.00     4.98   0.497
  Vegetation_s3098          44.68       0.00       0.00      22.42       8.76      13.35      22.12        0.00     4.86   0.495
  Street_s3099              44.68     192.92       0.00       0.00     237.39       0.00     237.39        0.02    35.83   0.999
  Street_s3100              44.68       0.00       0.00       0.00      44.45       0.00      44.45        0.00     5.37   0.995
  Vegetation_s3111          44.68       0.00       0.00      22.44       8.77      13.33      22.10        0.00     4.83   0.495
  Street_s3112              44.68       0.00       0.00       0.00      44.46       0.00      44.46        0.00     5.37   0.995
  Vegetation_s3113          44.68       0.00       0.00      22.32       8.76      13.46      22.22        0.00     4.98   0.497
  Street_s3114              44.68      22.20       0.00       0.00      66.65       0.00      66.65        0.01    10.28   0.997
  Street_s3124              44.68       0.00       0.00       0.00      44.41       0.00      44.41        0.00     5.29   0.994
  Roof_s3130                44.68       0.00       0.00       0.00      44.45       0.00      44.45        0.00     5.37   0.995
  Street_s3131              44.68     100.44       0.00       0.00     144.90       0.00     144.90        0.01    11.38   0.998
  Street_s3132              44.68       0.00       0.00       0.00      44.46       0.00      44.46        0.00     5.37   0.995
  Sand_Gravel_s3133         44.68       0.00       0.00      36.64       0.00       0.00       8.04        0.00     0.34   0.180
  Street_s3134              44.68     160.29       0.00       0.00     204.76       0.00     204.76        0.02    26.72   0.999
  Street_s3168              44.68     252.16       0.00       0.00     296.61       0.00     296.61        0.03    45.47   0.999
  Vegetation_s3169          44.68       0.00       0.00      22.44       8.76      13.34      22.10        0.00     4.84   0.495
  Vegetation_s3171          44.68      44.45       0.00      25.96      17.65      45.38      63.03        0.01    10.12   0.707
  Vegetation_s3172          44.68      44.45       0.00      25.70      17.65      45.65      63.30        0.01    10.36   0.710
  Street_s3173              44.68       0.00       0.00       0.00      44.45       0.00      44.45        0.00     5.37   0.995
  Vegetation_s3181          44.68      44.45       0.00      25.75      17.65      45.59      63.24        0.01    10.33   0.710
[...]
  36R67RW              JUNCTION     0.03     1.60   114.81     0  12:41        1.31
  36R71RW              JUNCTION     0.03     1.67   114.80     0  12:41        1.35
  36R83RW              JUNCTION     0.05     1.59   118.04     0  12:12        1.59
  68RW                 JUNCTION     0.05     2.05   118.11     0  12:20        2.05
  69RW                 JUNCTION     0.08     3.35   118.51     0  12:35        3.35
  78RW                 JUNCTION     0.03     1.19   118.37     0  12:20        1.19
  79RW                 JUNCTION     0.01     2.09   116.68     0  12:38        2.07
  80RW                 JUNCTION     0.01     0.87   115.18     0  12:38        0.72
  81RW                 JUNCTION     0.01     1.76   118.15     0  12:36        1.76
  83RW                 JUNCTION     0.02     2.69   117.46     0  12:40        2.67
  84RW                 JUNCTION     0.03     1.70   118.84     0  12:28        1.70
  85RW                 JUNCTION     0.05     2.69   118.95     0  12:35        2.69
  86RW                 JUNCTION     0.08     3.46   118.92     0  12:36        3.46
  87RW                 JUNCTION     0.09     3.51   118.64     0  12:28        3.51
  89RW                 JUNCTION     0.04     2.10   114.87     0  12:40        1.65
  90RW                 JUNCTION     0.06     2.24   114.71     0  12:40        1.91
  91RW                 JUNCTION     0.06     0.87   113.13     0  12:55        0.87
  culvEnd              JUNCTION     0.03     0.67   113.14     0  12:53        0.66
  CSO_6                OUTFALL      0.02     0.37   112.60     0  12:54        0.37
  
  
  *******************
  Node Inflow Summary
  *******************
  
  -------------------------------------------------------------------------------------------------
                                  Maximum  Maximum                  Lateral       Total        Flow
                                  Lateral    Total  Time of Max      Inflow      Inflow     Balance
                                   Inflow   Inflow   Occurrence      Volume      Volume       Error
  Node                 Type           LPS      LPS  days hr:min    10^6 ltr    10^6 ltr     Percent
  -------------------------------------------------------------------------------------------------
  36L44RW              JUNCTION    162.79   162.79     0  12:40       0.113       0.113      -2.322
  36L71RW              JUNCTION    158.04   236.48     0  12:37       0.122       0.219      -0.758
  36M18RW              JUNCTION    155.52   328.87     0  12:39       0.113        0.33      -0.036
  36M5RW               JUNCTION     42.33   370.36     0  12:39      0.0354       0.366      -0.802
  36Q109RW             JUNCTION     76.19    76.19     0  12:40      0.0485      0.0489       0.439
  36Q114RW             JUNCTION    118.71   160.34     0  12:36      0.0816       0.141      -1.676
  36Q123RW             JUNCTION     42.06   431.00     0  12:40       0.031       0.494      -1.352
  36Q153RW             JUNCTION    177.37   210.09     0  12:40       0.114       0.225      -0.064
  36Q166RW             JUNCTION    154.13   154.13     0  12:40      0.0951      0.0951      -0.090
  36Q55RW              JUNCTION     41.59   667.35     0  12:40      0.0306       0.699       0.456
  36Q69RW              JUNCTION     83.21    92.22     0  12:40      0.0595       0.252       0.045
  36Q81RW              JUNCTION     99.05   835.36     0  12:40      0.0674        1.18      -0.481
  36Q86RW              JUNCTION    125.87   173.28     0  12:40      0.0806       0.226       0.085
  36Q88RW              JUNCTION      0.00    45.91     0  12:41           0       0.124       1.820
  36R67RW              JUNCTION    220.60  1113.70     0  12:40       0.167        1.72      -0.231
  36R71RW              JUNCTION    181.07  1199.57     0  12:40       0.146        1.87      -0.471
  36R83RW              JUNCTION    321.15   329.06     0  12:40       0.247       0.249       0.103
  68RW                 JUNCTION    144.48   155.90     0  12:40      0.0992        0.11       0.191
  69RW                 JUNCTION    193.05   193.05     0  12:40       0.139       0.169      -0.141
  78RW                 JUNCTION    311.20   311.20     0  12:40       0.224       0.224      -0.021
  79RW                 JUNCTION     82.21    82.21     0  12:40      0.0548      0.0548      -0.816
  80RW                 JUNCTION    164.36   651.77     0  12:38       0.108       0.664      -0.646
  81RW                 JUNCTION    117.94   117.94     0  12:40      0.0811      0.0811      -0.341
  83RW                 JUNCTION    243.40   259.35     0  12:40       0.163       0.319      -0.331
  84RW                 JUNCTION     95.22   114.03     0  12:40       0.064      0.0697      -0.100
  85RW                 JUNCTION     31.10    31.10     0  12:40      0.0221      0.0516      -0.220
  86RW                 JUNCTION     30.45    38.38     0  12:40      0.0196      0.0648       0.020
  87RW                 JUNCTION      0.00    23.08     0  12:40           0      0.0624       0.306
  89RW                 JUNCTION      0.00  1076.30     0  12:40           0        1.88      -0.349
  90RW                 JUNCTION      0.00   623.93     0  12:40           0        1.88       0.291
  91RW                 JUNCTION      0.00   585.30     0  12:43           0        1.88       0.572
  culvEnd              JUNCTION      0.00   576.62     0  12:42           0        1.88      -0.113
  CSO_6                OUTFALL       0.00   470.57     0  12:54           0        1.87       0.000
  
  
  **********************
  Node Surcharge Summary
  **********************
  
  Surcharging occurs when water rises above the top of the highest conduit.
  ---------------------------------------------------------------------
                                               Max. Height   Min. Depth
                                   Hours       Above Crown    Below Rim
  Node                 Type      Surcharged         Meters       Meters
  ---------------------------------------------------------------------
  36L44RW              JUNCTION        0.05          1.870        0.000
  36L71RW              JUNCTION        0.12          2.540        0.000
  36M18RW              JUNCTION        0.18          2.229        0.781
  36M5RW               JUNCTION        0.37          0.808        2.592
  36Q109RW             JUNCTION        0.83          2.240        0.000
  36Q114RW             JUNCTION        0.09          1.590        0.000
  36Q123RW             JUNCTION        0.01          0.313        2.837
  36Q153RW             JUNCTION        1.57          2.830        0.000
  36Q166RW             JUNCTION        0.42          1.350        0.000
  36Q69RW              JUNCTION        0.91          2.070        0.000
  36Q86RW              JUNCTION        1.21          2.790        0.000
  36Q88RW              JUNCTION        1.89          3.450        0.000
  36R67RW              JUNCTION        0.19          0.600        3.430
  36R71RW              JUNCTION        0.24          0.669        3.871
  36R83RW              JUNCTION        1.00          1.440        0.000
  68RW                 JUNCTION        0.85          1.900        0.000
  69RW                 JUNCTION        0.95          3.050        0.000
  78RW                 JUNCTION        0.85          0.990        0.000
  79RW                 JUNCTION        0.13          1.888        1.272
  80RW                 JUNCTION        0.05          0.267        2.813
  81RW                 JUNCTION        0.11          1.460        0.000
  83RW                 JUNCTION        0.11          2.290        0.490
  84RW                 JUNCTION        0.51          1.500        0.000
  85RW                 JUNCTION        0.77          2.490        0.000
  86RW                 JUNCTION        1.01          3.260        0.000
  87RW                 JUNCTION        1.23          3.310        0.000
  89RW                 JUNCTION        0.44          1.100        4.360
  90RW                 JUNCTION        0.65          1.244        2.576
  
  
  *********************
  Node Flooding Summary
  *********************
  
  Flooding refers to all water that overflows a node, whether it ponds or not.
  --------------------------------------------------------------------------
                                                             Total   Maximum
                                 Maximum   Time of Max       Flood    Ponded
                        Hours       Rate    Occurrence      Volume     Depth
  Node                 Flooded       LPS   days hr:min    10^6 ltr    Meters
  --------------------------------------------------------------------------
  36L44RW                 0.05    145.44      0  12:38       0.019     0.000
  36L71RW                 0.04     32.75      0  12:40       0.003     0.000
  36Q109RW                0.10     48.48      0  12:40       0.012     0.000
  36Q114RW                0.01     33.57      0  12:36       0.000     0.000
  36Q153RW                0.36    193.27      0  12:40       0.069     0.000
  36Q166RW                0.24    132.51      0  12:40       0.040     0.000
  36Q69RW                 0.08     32.80      0  12:40       0.007     0.000
  36Q86RW                 0.41    137.53      0  12:40       0.053     0.000
  36Q88RW                 0.27     25.97      0  12:41       0.014     0.000
  36R83RW                 0.89    328.57      0  12:40       0.159     0.000
  68RW                    0.57    155.59      0  12:40       0.079     0.000
  69RW                    0.11    135.42      0  12:40       0.035     0.000
  78RW                    0.52    300.98      0  12:40       0.122     0.000
  81RW                    0.07    106.21      0  12:40       0.022     0.000
  84RW                    0.33    113.55      0  12:40       0.040     0.000
  85RW                    0.08      4.30      0  12:40       0.001     0.000
  86RW                    0.08     15.18      0  12:40       0.003     0.000
  87RW                    0.37     11.21      0  12:40       0.007     0.000
  
  
  ***********************
  Outfall Loading Summary
  ***********************
  
  -----------------------------------------------------------
                         Flow       Avg       Max       Total
                         Freq      Flow      Flow      Volume
  Outfall Node           Pcnt       LPS       LPS    10^6 ltr
  -----------------------------------------------------------
  CSO_6                 36.26     45.89    470.57       1.871
  -----------------------------------------------------------
  System                36.26     45.89    470.57       1.871
  
  
  ********************
  Link Flow Summary
  ********************
  
  -----------------------------------------------------------------------------
                                 Maximum  Time of Max   Maximum    Max/    Max/
                                  |Flow|   Occurrence   |Veloc|    Full    Full
  Link                 Type          LPS  days hr:min     m/sec    Flow   Depth
  -----------------------------------------------------------------------------
  1                    CONDUIT    576.62     0  12:42      3.63    3.59    1.00
  68                   CONDUIT    110.67     0  12:40      0.94    0.78    1.00
  69                   CONDUIT     11.65     0  12:16      0.84    0.68    1.00
  70                   CONDUIT     45.91     0  12:41      0.87    0.65    1.00
  71                   CONDUIT    192.88     0  12:40      1.53    1.41    1.00
  72                   CONDUIT    328.79     0  12:39      2.62    1.75    1.00
  73                   CONDUIT    370.32     0  12:39      1.89    1.29    1.00
  74                   CONDUIT     27.48     0  12:41      0.87    0.62    1.00
  75                   CONDUIT     24.42     0  12:18      1.38    2.46    1.00
  76                   CONDUIT     36.52     0  12:26      2.07    1.98    1.00
  77                   CONDUIT    769.04     0  12:41      1.17    0.52    0.99
  78                   CONDUIT     26.49     0  12:12      1.51    2.01    1.00
  79                   CONDUIT     23.83     0  12:20      0.78    0.92    1.00
  80                   CONDUIT     52.54     0  12:36      2.97    1.36    1.00
  81                   CONDUIT    666.68     0  12:40      1.68    0.62    0.89
  82                   CONDUIT     82.17     0  12:40      2.62    2.41    1.00
  83                   CONDUIT    629.10     0  12:40      2.31    1.23    1.00
  84                   CONDUIT     77.86     0  12:36      1.13    1.44    1.00
  85                   CONDUIT    131.51     0  12:37      1.86    1.33    1.00
  86                   CONDUIT    434.21     0  12:41      1.68    0.63    1.00
  87                   CONDUIT    259.33     0  12:40      2.06    2.00    1.00
  88                   CONDUIT     40.23     0  12:48      2.28    3.65    1.00
  89                   CONDUIT     20.85     0  12:43      1.18    0.67    1.00
  90                   CONDUIT     18.81     0  12:40      0.97    0.35    1.00
  91                   CONDUIT     11.62     0  12:47      0.85    0.28    1.00
  92                   CONDUIT     23.08     0  12:40      0.77    0.92    1.00
  93                   CONDUIT     13.97     0  12:51      0.79    1.64    1.00
  94                   CONDUIT   1093.92     0  12:41      1.63    0.84    1.00
  95                   CONDUIT   1076.30     0  12:40      1.66    0.56    1.00
  96                   CONDUIT    623.93     0  12:40      0.99    0.42    1.00
  97                   CONDUIT    585.30     0  12:43      1.59    0.30    0.77
  98                   CONDUIT    470.57     0  12:54      0.92    0.30    0.62
  
  
  ***************************
  Flow Classification Summary
  ***************************
  
  -------------------------------------------------------------------------------------
                      Adjusted    ---------- Fraction of Time in Flow Class ---------- 
                       /Actual         Up    Down  Sub   Sup   Up    Down  Norm  Inlet 
  Conduit               Length    Dry  Dry   Dry   Crit  Crit  Crit  Crit  Ltd   Ctrl  
  -------------------------------------------------------------------------------------
  1                       4.13   0.25  0.00  0.00  0.74  0.00  0.00  0.00  0.00  0.00
  68                      1.00   0.25  0.00  0.00  0.75  0.00  0.00  0.00  0.69  0.00
  69                      1.05   0.25  0.00  0.00  0.75  0.00  0.00  0.00  0.20  0.00
  70                      1.00   0.25  0.43  0.00  0.32  0.00  0.00  0.00  0.72  0.00
  71                      1.02   0.25  0.00  0.00  0.75  0.00  0.00  0.00  0.73  0.00
  72                      1.00   0.25  0.00  0.00  0.72  0.03  0.00  0.00  0.66  0.00
  73                      1.90   0.25  0.00  0.00  0.75  0.00  0.00  0.00  0.44  0.00
  74                      1.40   0.25  0.12  0.00  0.62  0.00  0.00  0.00  0.73  0.00
  75                      1.65   0.25  0.00  0.00  0.75  0.00  0.00  0.00  0.07  0.00
  76                      1.57   0.25  0.00  0.00  0.63  0.12  0.00  0.00  0.07  0.00
  77                      1.00   0.26  0.16  0.00  0.58  0.00  0.00  0.00  0.70  0.00
  78                      1.00   0.25  0.00  0.00  0.73  0.02  0.00  0.00  0.61  0.00
  79                      1.00   0.25  0.06  0.00  0.69  0.00  0.00  0.00  0.71  0.00
  80                      2.61   0.25  0.00  0.00  0.68  0.06  0.00  0.00  0.13  0.00
  81                      1.00   0.34  0.05  0.00  0.61  0.00  0.00  0.00  0.43  0.00
  82                      4.52   0.25  0.00  0.00  0.75  0.00  0.00  0.00  0.14  0.00
  83                      2.39   0.25  0.00  0.00  0.71  0.04  0.00  0.00  0.55  0.00
  84                      1.00   0.25  0.00  0.00  0.75  0.00  0.00  0.00  0.63  0.00
  85                      1.00   0.25  0.00  0.00  0.75  0.00  0.00  0.00  0.11  0.00
  86                     10.95   0.25  0.00  0.00  0.70  0.04  0.00  0.00  0.73  0.00
  87                      1.00   0.25  0.00  0.00  0.75  0.00  0.00  0.00  0.00  0.00
  88                      1.28   0.25  0.00  0.00  0.75  0.00  0.00  0.00  0.09  0.00
  89                      1.40   0.25  0.00  0.00  0.75  0.00  0.00  0.00  0.74  0.00
  90                      3.11   0.25  0.00  0.00  0.72  0.03  0.00  0.00  0.29  0.00
  91                      2.46   0.25  0.00  0.00  0.73  0.02  0.00  0.00  0.70  0.00
  92                      1.14   0.25  0.00  0.00  0.75  0.00  0.00  0.00  0.29  0.00
  93                      1.00   0.25  0.00  0.00  0.75  0.00  0.00  0.00  0.70  0.00
  94                      2.89   0.25  0.01  0.00  0.74  0.00  0.00  0.00  0.15  0.00
  95                      1.22   0.25  0.00  0.00  0.74  0.01  0.00  0.00  0.09  0.00
  96                      3.02   0.25  0.43  0.00  0.32  0.00  0.00  0.00  0.72  0.00
  97                      2.49   0.25  0.22  0.00  0.53  0.00  0.00  0.00  0.69  0.00
  98                      1.00   0.25  0.00  0.00  0.75  0.00  0.00  0.00  0.00  0.00
  
  
  *************************
  Conduit Surcharge Summary
  *************************
  
  ----------------------------------------------------------------------------
                                                           Hours        Hours 
                         --------- Hours Full --------   Above Full   Capacity
  Conduit                Both Ends  Upstream  Dnstream   Normal Flow   Limited
  ----------------------------------------------------------------------------
  1                           0.86      1.24      0.86      1.23         0.86
  68                          0.05      0.05      0.11      0.01         0.01
  69                          0.85      0.85      1.13      0.01         0.01
  70                          0.93      0.93      1.89      0.01         0.01
  71                          0.11      0.11      0.18      0.07         0.07
  72                          0.17      0.18      0.43      0.08         0.07
  73                          0.37      0.37      0.59      0.05         0.05
  74                          0.83      0.83      1.21      0.01         0.01
  75                          1.28      1.28      2.22      1.38         0.01
  76                          1.27      1.28      1.43      1.31         1.26
  77                          0.01      0.01      0.19      0.01         0.01
  78                          0.96      1.00      0.96      0.79         0.73
  79                          0.84      0.84      0.91      0.01         0.01
  80                          0.92      0.96      1.43      0.93         0.88
  81                          0.01      0.01      0.12      0.01         0.01
  82                          0.13      0.13      0.34      0.10         0.09
  83                          0.02      0.04      0.04      0.06         0.02
  84                          0.08      0.11      0.08      0.01         0.01
  85                          0.08      0.08      0.11      0.10         0.08
  86                          0.01      0.01      0.04      0.01         0.01
  87                          0.08      0.11      0.08      0.10         0.07
  88                          1.05      1.57      1.05      1.52         1.05
  89                          0.42      0.42      1.57      0.01         0.01
  90                          0.51      0.51      0.76      0.01         0.01
  91                          0.76      0.76      1.01      0.01         0.01
  92                          1.01      1.01      1.23      0.01         0.01
  93                          1.39      1.39      1.57      0.81         0.81
  94                          0.19      0.19      0.23      0.01         0.01
  95                          0.23      0.23      0.45      0.01         0.01
  96                          0.45      0.45      0.65      0.01         0.01
  

  Analysis begun on:  Fri Jan 30 17:17:06 2026
  Analysis ended on:  Fri Jan 30 17:17:09 2026
  Total elapsed time: 00:00:03